# CIF file
# This file was generated by FINDSYM
# Harold T. Stokes, Branton J. Campbell, Dorian M. Hatch
# Brigham Young University, Provo, Utah, USA
 
data_ findsym-output
 
_symmetry_space_group_name_H-M "I 21/m 21/m 21/a"
_symmetry_Int_Tables_number 74
 
_cell_length_a       5.42490
_cell_length_b       8.81204
_cell_length_c       4.92387
_cell_angle_alpha   90.00000
_cell_angle_beta    90.00000
_cell_angle_gamma   90.00000
 
loop_
_space_group_symop_operation_xyz
x,y,z
x,-y,-z
-x,y+1/2,-z
-x,-y+1/2,z
-x,-y,-z
-x,y,z
x,-y+1/2,z
x,y+1/2,-z
x+1/2,y+1/2,z+1/2
x+1/2,-y+1/2,-z+1/2
-x+1/2,y,-z+1/2
-x+1/2,-y,z+1/2
-x+1/2,-y+1/2,-z+1/2
-x+1/2,y+1/2,z+1/2
x+1/2,-y,z+1/2
x+1/2,y,-z+1/2
 
loop_
_atom_site_label
_atom_site_type_symbol
_atom_site_fract_x
_atom_site_fract_y
_atom_site_fract_z
_atom_site_occupancy
Pb1 Pb   0.00000   0.25000  -0.49138   1.00000
Cu1 Cu   0.00000   0.00000   0.00000   1.00000
O1 O   0.25000   0.41581   0.25000   1.00000
 
